<additional>
  <tlLogic id="nt1" programID="0" offset="0" type="static">
    <phase duration="30" state="GGrr"/>
    <phase duration="3" state="yyrr"/>
    <phase duration="30" state="rrGG"/>
    <phase duration="3" state="rryy"/>
  </tlLogic>
  <tlLogic id="nt2" programID="0" offset="0" type="static">
    <phase duration="30" state="GGrr"/>
    <phase duration="3" state="yyrr"/>
    <phase duration="30" state="rrGG"/>
    <phase duration="3" state="rryy"/>
  </tlLogic>
  <tlLogic id="nt3" programID="0" offset="0" type="static">
    <phase duration="30" state="GGrr"/>
    <phase duration="3" state="yyrr"/>
    <phase duration="30" state="rrGG"/>
    <phase duration="3" state="rryy"/>
  </tlLogic>
  <tlLogic id="nt4" programID="0" offset="0" type="static">
    <phase duration="30" state="GGrr"/>
    <phase duration="3" state="yyrr"/>
    <phase duration="30" state="rrGG"/>
    <phase duration="3" state="rryy"/>
  </tlLogic>
</additional>
