<?xml version="1.0" encoding="UTF-8"?>

<!-- generated on Sun Feb 16 20:35:08 2020 by Eclipse SUMO jtrrouter Version v1_1_0+0000-2147d155b1
<configuration xmlns:xsi="http://www.w3.org/2001/XMLSchema-instance" xsi:noNamespaceSchemaLocation="http://sumo.dlr.de/xsd/jtrrouterConfiguration.xsd">

    <input>
        <net-file value="exp.net.xml"/>
        <route-files value="exp.raw.rou.xml"/>
        <turn-ratio-files value="exp.turns.xml"/>
    </input>

    <output>
        <output-file value="exp.rou.xml"/>
    </output>

    <processing>
        <no-internal-links value="true"/>
    </processing>

</configuration>
-->

<routes xmlns:xsi="http://www.w3.org/2001/XMLSchema-instance" xsi:noNamespaceSchemaLocation="http://sumo.dlr.de/xsd/routes_file.xsd">
    <vType id="type1" length="5.00" accel="5" decel="10"/>
    <vehicle id="mf_1_0.0" type="type1" depart="1.00" departPos="random_free">
        <route edges="nt1_nt4 nt4_np8"/>
    </vehicle>
    <vehicle id="mf_4_0.0" type="type1" depart="1.00" departPos="random_free">
        <route edges="nt3_nt2 nt2_np3"/>
    </vehicle>
    <vehicle id="mf_0_0.0" type="type1" depart="2.00" departPos="random_free">
        <route edges="nt1_nt4 nt4_np7"/>
    </vehicle>
    <vehicle id="mf_4_0.1" type="type1" depart="2.00" departPos="random_free">
        <route edges="nt3_nt2 nt2_np3"/>
    </vehicle>
    <vehicle id="mf_1_0.1" type="type1" depart="3.00" departPos="random_free">
        <route edges="nt1_nt4 nt4_np8"/>
    </vehicle>
    <vehicle id="mf_0_0.1" type="type1" depart="5.00" departPos="random_free">
        <route edges="nt1_nt4 nt4_np7"/>
    </vehicle>
    <vehicle id="mf_4_0.2" type="type1" depart="5.00" departPos="random_free">
        <route edges="nt3_nt2 nt2_np3"/>
    </vehicle>
    <vehicle id="mf_0_0.2" type="type1" depart="7.00" departPos="random_free">
        <route edges="nt1_nt4 nt4_np7"/>
    </vehicle>
    <vehicle id="mf_1_0.2" type="type1" depart="7.00" departPos="random_free">
        <route edges="nt1_nt4 nt4_np8"/>
    </vehicle>
    <vehicle id="mf_4_0.3" type="type1" depart="8.00" departPos="random_free">
        <route edges="nt3_nt2 nt2_np3"/>
    </vehicle>
    <vehicle id="mf_1_0.3" type="type1" depart="9.00" departPos="random_free">
        <route edges="nt1_nt4 nt4_np8"/>
    </vehicle>
    <vehicle id="mf_4_0.4" type="type1" depart="9.00" departPos="random_free">
        <route edges="nt3_nt2 nt2_np3"/>
    </vehicle>
    <vehicle id="mf_0_0.3" type="type1" depart="10.00" departPos="random_free">
        <route edges="nt1_nt4 nt4_np7"/>
    </vehicle>
    <vehicle id="mf_1_0.4" type="type1" depart="11.00" departPos="random_free">
        <route edges="nt1_nt4 nt4_np8"/>
    </vehicle>
    <vehicle id="mf_0_0.4" type="type1" depart="15.00" departPos="random_free">
        <route edges="nt1_nt4 nt4_np7"/>
    </vehicle>
    <vehicle id="mf_0_0.5" type="type1" depart="16.00" departPos="random_free">
        <route edges="nt1_nt4 nt4_np7"/>
    </vehicle>
    <vehicle id="mf_1_0.5" type="type1" depart="16.00" departPos="random_free">
        <route edges="nt1_nt4 nt4_np8"/>
    </vehicle>
    <vehicle id="mf_1_0.6" type="type1" depart="19.00" departPos="random_free">
        <route edges="nt1_nt4 nt4_np8"/>
    </vehicle>
    <vehicle id="mf_0_0.6" type="type1" depart="20.00" departPos="random_free">
        <route edges="nt1_nt4 nt4_np7"/>
    </vehicle>
    <vehicle id="mf_1_0.7" type="type1" depart="21.00" departPos="random_free">
        <route edges="nt1_nt4 nt4_np8"/>
    </vehicle>
    <vehicle id="mf_1_0.8" type="type1" depart="23.00" departPos="random_free">
        <route edges="nt1_nt4 nt4_np8"/>
    </vehicle>
    <vehicle id="mf_4_0.5" type="type1" depart="23.00" departPos="random_free">
        <route edges="nt3_nt2 nt2_np3"/>
    </vehicle>
    <vehicle id="mf_4_0.6" type="type1" depart="24.00" departPos="random_free">
        <route edges="nt3_nt2 nt2_np3"/>
    </vehicle>
    <vehicle id="mf_1_0.9" type="type1" depart="27.00" departPos="random_free">
        <route edges="nt1_nt4 nt4_np8"/>
    </vehicle>
    <vehicle id="mf_0_0.7" type="type1" depart="29.00" departPos="random_free">
        <route edges="nt1_nt4 nt4_np7"/>
    </vehicle>
    <vehicle id="mf_1_0.10" type="type1" depart="29.00" departPos="random_free">
        <route edges="nt1_nt4 nt4_np8"/>
    </vehicle>
    <vehicle id="mf_4_0.7" type="type1" depart="29.00" departPos="random_free">
        <route edges="nt3_nt2 nt2_np3"/>
    </vehicle>
    <vehicle id="mf_0_0.8" type="type1" depart="30.00" departPos="random_free">
        <route edges="nt1_nt4 nt4_np7"/>
    </vehicle>
    <vehicle id="mf_1_0.11" type="type1" depart="30.00" departPos="random_free">
        <route edges="nt1_nt4 nt4_np8"/>
    </vehicle>
    <vehicle id="mf_4_0.8" type="type1" depart="30.00" departPos="random_free">
        <route edges="nt3_nt2 nt2_np3"/>
    </vehicle>
    <vehicle id="mf_1_0.12" type="type1" depart="32.00" departPos="random_free">
        <route edges="nt1_nt4 nt4_np8"/>
    </vehicle>
    <vehicle id="mf_0_0.9" type="type1" depart="33.00" departPos="random_free">
        <route edges="nt1_nt4 nt4_np7"/>
    </vehicle>
    <vehicle id="mf_0_0.10" type="type1" depart="35.00" departPos="random_free">
        <route edges="nt1_nt4 nt4_np7"/>
    </vehicle>
    <vehicle id="mf_4_0.9" type="type1" depart="35.00" departPos="random_free">
        <route edges="nt3_nt2 nt2_np3"/>
    </vehicle>
    <vehicle id="mf_0_0.11" type="type1" depart="38.00" departPos="random_free">
        <route edges="nt1_nt4 nt4_np7"/>
    </vehicle>
    <vehicle id="mf_0_0.12" type="type1" depart="39.00" departPos="random_free">
        <route edges="nt1_nt4 nt4_np7"/>
    </vehicle>
    <vehicle id="mf_1_0.13" type="type1" depart="40.00" departPos="random_free">
        <route edges="nt1_nt4 nt4_np8"/>
    </vehicle>
    <vehicle id="mf_1_0.14" type="type1" depart="41.00" departPos="random_free">
        <route edges="nt1_nt4 nt4_np8"/>
    </vehicle>
    <vehicle id="mf_0_0.13" type="type1" depart="42.00" departPos="random_free">
        <route edges="nt1_nt4 nt4_np7"/>
    </vehicle>
    <vehicle id="mf_0_0.14" type="type1" depart="43.00" departPos="random_free">
        <route edges="nt1_nt4 nt4_np7"/>
    </vehicle>
    <vehicle id="mf_1_0.15" type="type1" depart="43.00" departPos="random_free">
        <route edges="nt1_nt4 nt4_np8"/>
    </vehicle>
    <vehicle id="mf_0_0.15" type="type1" depart="44.00" departPos="random_free">
        <route edges="nt1_nt4 nt4_np7"/>
    </vehicle>
    <vehicle id="mf_1_0.16" type="type1" depart="44.00" departPos="random_free">
        <route edges="nt1_nt4 nt4_np8"/>
    </vehicle>
    <vehicle id="mf_1_0.17" type="type1" depart="45.00" departPos="random_free">
        <route edges="nt1_nt4 nt4_np8"/>
    </vehicle>
    <vehicle id="mf_4_0.10" type="type1" depart="45.00" departPos="random_free">
        <route edges="nt3_nt2 nt2_np3"/>
    </vehicle>
    <vehicle id="mf_0_0.16" type="type1" depart="46.00" departPos="random_free">
        <route edges="nt1_nt4 nt4_np7"/>
    </vehicle>
    <vehicle id="mf_4_0.11" type="type1" depart="46.00" departPos="random_free">
        <route edges="nt3_nt2 nt2_np3"/>
    </vehicle>
    <vehicle id="mf_1_0.18" type="type1" depart="47.00" departPos="random_free">
        <route edges="nt1_nt4 nt4_np8"/>
    </vehicle>
    <vehicle id="mf_0_0.17" type="type1" depart="48.00" departPos="random_free">
        <route edges="nt1_nt4 nt4_np7"/>
    </vehicle>
    <vehicle id="mf_1_0.19" type="type1" depart="50.00" departPos="random_free">
        <route edges="nt1_nt4 nt4_np8"/>
    </vehicle>
    <vehicle id="mf_4_0.12" type="type1" depart="52.00" departPos="random_free">
        <route edges="nt3_nt2 nt2_np3"/>
    </vehicle>
    <vehicle id="mf_4_0.13" type="type1" depart="53.00" departPos="random_free">
        <route edges="nt3_nt2 nt2_np3"/>
    </vehicle>
    <vehicle id="mf_0_0.18" type="type1" depart="58.00" departPos="random_free">
        <route edges="nt1_nt4 nt4_np7"/>
    </vehicle>
    <vehicle id="mf_4_0.14" type="type1" depart="58.00" departPos="random_free">
        <route edges="nt3_nt2 nt2_np3"/>
    </vehicle>
    <vehicle id="mf_0_0.19" type="type1" depart="60.00" departPos="random_free">
        <route edges="nt1_nt4 nt4_np7"/>
    </vehicle>
    <vehicle id="mf_0_0.20" type="type1" depart="62.00" departPos="random_free">
        <route edges="nt1_nt4 nt4_np7"/>
    </vehicle>
    <vehicle id="mf_4_0.15" type="type1" depart="62.00" departPos="random_free">
        <route edges="nt3_nt2 nt2_np3"/>
    </vehicle>
    <vehicle id="mf_0_0.21" type="type1" depart="63.00" departPos="random_free">
        <route edges="nt1_nt4 nt4_np7"/>
    </vehicle>
    <vehicle id="mf_1_0.20" type="type1" depart="63.00" departPos="random_free">
        <route edges="nt1_nt4 nt4_np8"/>
    </vehicle>
    <vehicle id="mf_0_0.22" type="type1" depart="64.00" departPos="random_free">
        <route edges="nt1_nt4 nt4_np7"/>
    </vehicle>
    <vehicle id="mf_1_0.21" type="type1" depart="64.00" departPos="random_free">
        <route edges="nt1_nt4 nt4_np8"/>
    </vehicle>
    <vehicle id="mf_4_0.16" type="type1" depart="65.00" departPos="random_free">
        <route edges="nt3_nt2 nt2_np3"/>
    </vehicle>
    <vehicle id="mf_4_0.17" type="type1" depart="66.00" departPos="random_free">
        <route edges="nt3_nt2 nt2_np3"/>
    </vehicle>
    <vehicle id="mf_0_0.23" type="type1" depart="67.00" departPos="random_free">
        <route edges="nt1_nt4 nt4_np7"/>
    </vehicle>
    <vehicle id="mf_1_0.22" type="type1" depart="67.00" departPos="random_free">
        <route edges="nt1_nt4 nt4_np8"/>
    </vehicle>
    <vehicle id="mf_0_0.24" type="type1" depart="68.00" departPos="random_free">
        <route edges="nt1_nt4 nt4_np7"/>
    </vehicle>
    <vehicle id="mf_1_0.23" type="type1" depart="71.00" departPos="random_free">
        <route edges="nt1_nt4 nt4_np8"/>
    </vehicle>
    <vehicle id="mf_0_0.25" type="type1" depart="72.00" departPos="random_free">
        <route edges="nt1_nt4 nt4_np7"/>
    </vehicle>
    <vehicle id="mf_4_0.18" type="type1" depart="73.00" departPos="random_free">
        <route edges="nt3_nt2 nt2_np3"/>
    </vehicle>
    <vehicle id="mf_0_0.26" type="type1" depart="74.00" departPos="random_free">
        <route edges="nt1_nt4 nt4_np7"/>
    </vehicle>
    <vehicle id="mf_1_0.24" type="type1" depart="74.00" departPos="random_free">
        <route edges="nt1_nt4 nt4_np8"/>
    </vehicle>
    <vehicle id="mf_0_0.27" type="type1" depart="75.00" departPos="random_free">
        <route edges="nt1_nt4 nt4_np7"/>
    </vehicle>
    <vehicle id="mf_0_0.28" type="type1" depart="76.00" departPos="random_free">
        <route edges="nt1_nt4 nt4_np7"/>
    </vehicle>
    <vehicle id="mf_0_0.29" type="type1" depart="77.00" departPos="random_free">
        <route edges="nt1_nt4 nt4_np7"/>
    </vehicle>
    <vehicle id="mf_1_0.25" type="type1" depart="80.00" departPos="random_free">
        <route edges="nt1_nt4 nt4_np8"/>
    </vehicle>
    <vehicle id="mf_0_0.30" type="type1" depart="81.00" departPos="random_free">
        <route edges="nt1_nt4 nt4_np7"/>
    </vehicle>
    <vehicle id="mf_4_0.19" type="type1" depart="81.00" departPos="random_free">
        <route edges="nt3_nt2 nt2_np3"/>
    </vehicle>
    <vehicle id="mf_4_0.20" type="type1" depart="83.00" departPos="random_free">
        <route edges="nt3_nt2 nt2_np3"/>
    </vehicle>
    <vehicle id="mf_1_0.26" type="type1" depart="84.00" departPos="random_free">
        <route edges="nt1_nt4 nt4_np8"/>
    </vehicle>
    <vehicle id="mf_4_0.21" type="type1" depart="85.00" departPos="random_free">
        <route edges="nt3_nt2 nt2_np3"/>
    </vehicle>
    <vehicle id="mf_1_0.27" type="type1" depart="89.00" departPos="random_free">
        <route edges="nt1_nt4 nt4_np8"/>
    </vehicle>
    <vehicle id="mf_4_0.22" type="type1" depart="89.00" departPos="random_free">
        <route edges="nt3_nt2 nt2_np3"/>
    </vehicle>
    <vehicle id="mf_0_0.31" type="type1" depart="92.00" departPos="random_free">
        <route edges="nt1_nt4 nt4_np7"/>
    </vehicle>
    <vehicle id="mf_0_0.32" type="type1" depart="94.00" departPos="random_free">
        <route edges="nt1_nt4 nt4_np7"/>
    </vehicle>
    <vehicle id="mf_4_0.23" type="type1" depart="94.00" departPos="random_free">
        <route edges="nt3_nt2 nt2_np3"/>
    </vehicle>
    <vehicle id="mf_4_0.24" type="type1" depart="95.00" departPos="random_free">
        <route edges="nt3_nt2 nt2_np3"/>
    </vehicle>
    <vehicle id="mf_4_0.25" type="type1" depart="96.00" departPos="random_free">
        <route edges="nt3_nt2 nt2_np3"/>
    </vehicle>
    <vehicle id="mf_4_0.26" type="type1" depart="97.00" departPos="random_free">
        <route edges="nt3_nt2 nt2_np3"/>
    </vehicle>
    <vehicle id="mf_1_0.28" type="type1" depart="103.00" departPos="random_free">
        <route edges="nt1_nt4 nt4_np8"/>
    </vehicle>
    <vehicle id="mf_4_0.27" type="type1" depart="104.00" departPos="random_free">
        <route edges="nt3_nt2 nt2_np3"/>
    </vehicle>
    <vehicle id="mf_4_0.28" type="type1" depart="107.00" departPos="random_free">
        <route edges="nt3_nt2 nt2_np3"/>
    </vehicle>
    <vehicle id="mf_1_0.29" type="type1" depart="108.00" departPos="random_free">
        <route edges="nt1_nt4 nt4_np8"/>
    </vehicle>
    <vehicle id="mf_4_0.29" type="type1" depart="108.00" departPos="random_free">
        <route edges="nt3_nt2 nt2_np3"/>
    </vehicle>
    <vehicle id="mf_0_0.33" type="type1" depart="109.00" departPos="random_free">
        <route edges="nt1_nt4 nt4_np7"/>
    </vehicle>
    <vehicle id="mf_4_0.30" type="type1" depart="110.00" departPos="random_free">
        <route edges="nt3_nt2 nt2_np3"/>
    </vehicle>
    <vehicle id="mf_1_0.30" type="type1" depart="111.00" departPos="random_free">
        <route edges="nt1_nt4 nt4_np8"/>
    </vehicle>
    <vehicle id="mf_1_0.31" type="type1" depart="114.00" departPos="random_free">
        <route edges="nt1_nt4 nt4_np8"/>
    </vehicle>
    <vehicle id="mf_0_0.34" type="type1" depart="115.00" departPos="random_free">
        <route edges="nt1_nt4 nt4_np7"/>
    </vehicle>
    <vehicle id="mf_1_0.32" type="type1" depart="115.00" departPos="random_free">
        <route edges="nt1_nt4 nt4_np8"/>
    </vehicle>
    <vehicle id="mf_4_0.31" type="type1" depart="115.00" departPos="random_free">
        <route edges="nt3_nt2 nt2_np3"/>
    </vehicle>
    <vehicle id="mf_1_0.33" type="type1" depart="116.00" departPos="random_free">
        <route edges="nt1_nt4 nt4_np8"/>
    </vehicle>
    <vehicle id="mf_0_0.35" type="type1" depart="117.00" departPos="random_free">
        <route edges="nt1_nt4 nt4_np7"/>
    </vehicle>
    <vehicle id="mf_1_0.34" type="type1" depart="117.00" departPos="random_free">
        <route edges="nt1_nt4 nt4_np8"/>
    </vehicle>
    <vehicle id="mf_1_0.35" type="type1" depart="118.00" departPos="random_free">
        <route edges="nt1_nt4 nt4_np8"/>
    </vehicle>
    <vehicle id="mf_4_0.32" type="type1" depart="118.00" departPos="random_free">
        <route edges="nt3_nt2 nt2_np3"/>
    </vehicle>
    <vehicle id="mf_4_0.33" type="type1" depart="119.00" departPos="random_free">
        <route edges="nt3_nt2 nt2_np3"/>
    </vehicle>
    <vehicle id="mf_0_0.36" type="type1" depart="121.00" departPos="random_free">
        <route edges="nt1_nt4 nt4_np7"/>
    </vehicle>
    <vehicle id="mf_4_0.34" type="type1" depart="122.00" departPos="random_free">
        <route edges="nt3_nt2 nt2_np3"/>
    </vehicle>
    <vehicle id="mf_1_0.36" type="type1" depart="123.00" departPos="random_free">
        <route edges="nt1_nt4 nt4_np8"/>
    </vehicle>
    <vehicle id="mf_4_0.35" type="type1" depart="123.00" departPos="random_free">
        <route edges="nt3_nt2 nt2_np3"/>
    </vehicle>
    <vehicle id="mf_4_0.36" type="type1" depart="125.00" departPos="random_free">
        <route edges="nt3_nt2 nt2_np3"/>
    </vehicle>
    <vehicle id="mf_0_0.37" type="type1" depart="126.00" departPos="random_free">
        <route edges="nt1_nt4 nt4_np7"/>
    </vehicle>
    <vehicle id="mf_1_0.37" type="type1" depart="127.00" departPos="random_free">
        <route edges="nt1_nt4 nt4_np8"/>
    </vehicle>
    <vehicle id="mf_4_0.37" type="type1" depart="127.00" departPos="random_free">
        <route edges="nt3_nt2 nt2_np3"/>
    </vehicle>
    <vehicle id="mf_4_0.38" type="type1" depart="130.00" departPos="random_free">
        <route edges="nt3_nt2 nt2_np3"/>
    </vehicle>
    <vehicle id="mf_1_0.38" type="type1" depart="131.00" departPos="random_free">
        <route edges="nt1_nt4 nt4_np8"/>
    </vehicle>
    <vehicle id="mf_0_0.38" type="type1" depart="132.00" departPos="random_free">
        <route edges="nt1_nt4 nt4_np7"/>
    </vehicle>
    <vehicle id="mf_1_0.39" type="type1" depart="132.00" departPos="random_free">
        <route edges="nt1_nt4 nt4_np8"/>
    </vehicle>
    <vehicle id="mf_1_0.40" type="type1" depart="134.00" departPos="random_free">
        <route edges="nt1_nt4 nt4_np8"/>
    </vehicle>
    <vehicle id="mf_4_0.39" type="type1" depart="134.00" departPos="random_free">
        <route edges="nt3_nt2 nt2_np3"/>
    </vehicle>
    <vehicle id="mf_1_0.41" type="type1" depart="135.00" departPos="random_free">
        <route edges="nt1_nt4 nt4_np8"/>
    </vehicle>
    <vehicle id="mf_1_0.42" type="type1" depart="136.00" departPos="random_free">
        <route edges="nt1_nt4 nt4_np8"/>
    </vehicle>
    <vehicle id="mf_0_0.39" type="type1" depart="137.00" departPos="random_free">
        <route edges="nt1_nt4 nt4_np7"/>
    </vehicle>
    <vehicle id="mf_1_0.43" type="type1" depart="137.00" departPos="random_free">
        <route edges="nt1_nt4 nt4_np8"/>
    </vehicle>
    <vehicle id="mf_4_0.40" type="type1" depart="139.00" departPos="random_free">
        <route edges="nt3_nt2 nt2_np3"/>
    </vehicle>
    <vehicle id="mf_1_0.44" type="type1" depart="142.00" departPos="random_free">
        <route edges="nt1_nt4 nt4_np8"/>
    </vehicle>
    <vehicle id="mf_0_0.40" type="type1" depart="143.00" departPos="random_free">
        <route edges="nt1_nt4 nt4_np7"/>
    </vehicle>
    <vehicle id="mf_4_0.41" type="type1" depart="143.00" departPos="random_free">
        <route edges="nt3_nt2 nt2_np3"/>
    </vehicle>
    <vehicle id="mf_1_0.45" type="type1" depart="145.00" departPos="random_free">
        <route edges="nt1_nt4 nt4_np8"/>
    </vehicle>
    <vehicle id="mf_4_0.42" type="type1" depart="147.00" departPos="random_free">
        <route edges="nt3_nt2 nt2_np3"/>
    </vehicle>
    <vehicle id="mf_0_0.41" type="type1" depart="148.00" departPos="random_free">
        <route edges="nt1_nt4 nt4_np7"/>
    </vehicle>
    <vehicle id="mf_1_0.46" type="type1" depart="149.00" departPos="random_free">
        <route edges="nt1_nt4 nt4_np8"/>
    </vehicle>
    <vehicle id="mf_1_0.47" type="type1" depart="151.00" departPos="random_free">
        <route edges="nt1_nt4 nt4_np8"/>
    </vehicle>
    <vehicle id="mf_1_0.48" type="type1" depart="152.00" departPos="random_free">
        <route edges="nt1_nt4 nt4_np8"/>
    </vehicle>
    <vehicle id="mf_0_0.42" type="type1" depart="153.00" departPos="random_free">
        <route edges="nt1_nt4 nt4_np7"/>
    </vehicle>
    <vehicle id="mf_0_0.43" type="type1" depart="156.00" departPos="random_free">
        <route edges="nt1_nt4 nt4_np7"/>
    </vehicle>
    <vehicle id="mf_0_0.44" type="type1" depart="160.00" departPos="random_free">
        <route edges="nt1_nt4 nt4_np7"/>
    </vehicle>
    <vehicle id="mf_1_0.49" type="type1" depart="161.00" departPos="random_free">
        <route edges="nt1_nt4 nt4_np8"/>
    </vehicle>
    <vehicle id="mf_4_0.43" type="type1" depart="161.00" departPos="random_free">
        <route edges="nt3_nt2 nt2_np3"/>
    </vehicle>
    <vehicle id="mf_1_0.50" type="type1" depart="167.00" departPos="random_free">
        <route edges="nt1_nt4 nt4_np8"/>
    </vehicle>
    <vehicle id="mf_4_0.44" type="type1" depart="168.00" departPos="random_free">
        <route edges="nt3_nt2 nt2_np3"/>
    </vehicle>
    <vehicle id="mf_1_0.51" type="type1" depart="169.00" departPos="random_free">
        <route edges="nt1_nt4 nt4_np8"/>
    </vehicle>
    <vehicle id="mf_1_0.52" type="type1" depart="170.00" departPos="random_free">
        <route edges="nt1_nt4 nt4_np8"/>
    </vehicle>
    <vehicle id="mf_0_0.45" type="type1" depart="171.00" departPos="random_free">
        <route edges="nt1_nt4 nt4_np7"/>
    </vehicle>
    <vehicle id="mf_0_0.46" type="type1" depart="172.00" departPos="random_free">
        <route edges="nt1_nt4 nt4_np7"/>
    </vehicle>
    <vehicle id="mf_1_0.53" type="type1" depart="173.00" departPos="random_free">
        <route edges="nt1_nt4 nt4_np8"/>
    </vehicle>
    <vehicle id="mf_1_0.54" type="type1" depart="174.00" departPos="random_free">
        <route edges="nt1_nt4 nt4_np8"/>
    </vehicle>
    <vehicle id="mf_1_0.55" type="type1" depart="175.00" departPos="random_free">
        <route edges="nt1_nt4 nt4_np8"/>
    </vehicle>
    <vehicle id="mf_4_0.45" type="type1" depart="177.00" departPos="random_free">
        <route edges="nt3_nt2 nt2_np3"/>
    </vehicle>
    <vehicle id="mf_4_0.46" type="type1" depart="178.00" departPos="random_free">
        <route edges="nt3_nt2 nt2_np3"/>
    </vehicle>
    <vehicle id="mf_0_0.47" type="type1" depart="179.00" departPos="random_free">
        <route edges="nt1_nt4 nt4_np7"/>
    </vehicle>
    <vehicle id="mf_4_0.47" type="type1" depart="179.00" departPos="random_free">
        <route edges="nt3_nt2 nt2_np3"/>
    </vehicle>
    <vehicle id="mf_0_0.48" type="type1" depart="181.00" departPos="random_free">
        <route edges="nt1_nt4 nt4_np7"/>
    </vehicle>
    <vehicle id="mf_1_0.56" type="type1" depart="182.00" departPos="random_free">
        <route edges="nt1_nt4 nt4_np8"/>
    </vehicle>
    <vehicle id="mf_0_0.49" type="type1" depart="183.00" departPos="random_free">
        <route edges="nt1_nt4 nt4_np7"/>
    </vehicle>
    <vehicle id="mf_0_0.50" type="type1" depart="184.00" departPos="random_free">
        <route edges="nt1_nt4 nt4_np7"/>
    </vehicle>
    <vehicle id="mf_0_0.51" type="type1" depart="185.00" departPos="random_free">
        <route edges="nt1_nt4 nt4_np7"/>
    </vehicle>
    <vehicle id="mf_0_0.52" type="type1" depart="186.00" departPos="random_free">
        <route edges="nt1_nt4 nt4_np7"/>
    </vehicle>
    <vehicle id="mf_0_0.53" type="type1" depart="187.00" departPos="random_free">
        <route edges="nt1_nt4 nt4_np7"/>
    </vehicle>
    <vehicle id="mf_0_0.54" type="type1" depart="190.00" departPos="random_free">
        <route edges="nt1_nt4 nt4_np7"/>
    </vehicle>
    <vehicle id="mf_1_0.57" type="type1" depart="190.00" departPos="random_free">
        <route edges="nt1_nt4 nt4_np8"/>
    </vehicle>
    <vehicle id="mf_0_0.55" type="type1" depart="193.00" departPos="random_free">
        <route edges="nt1_nt4 nt4_np7"/>
    </vehicle>
    <vehicle id="mf_4_0.48" type="type1" depart="193.00" departPos="random_free">
        <route edges="nt3_nt2 nt2_np3"/>
    </vehicle>
    <vehicle id="mf_0_0.56" type="type1" depart="194.00" departPos="random_free">
        <route edges="nt1_nt4 nt4_np7"/>
    </vehicle>
    <vehicle id="mf_1_0.58" type="type1" depart="194.00" departPos="random_free">
        <route edges="nt1_nt4 nt4_np8"/>
    </vehicle>
    <vehicle id="mf_1_0.59" type="type1" depart="195.00" departPos="random_free">
        <route edges="nt1_nt4 nt4_np8"/>
    </vehicle>
    <vehicle id="mf_4_0.49" type="type1" depart="195.00" departPos="random_free">
        <route edges="nt3_nt2 nt2_np3"/>
    </vehicle>
    <vehicle id="mf_0_0.57" type="type1" depart="196.00" departPos="random_free">
        <route edges="nt1_nt4 nt4_np7"/>
    </vehicle>
    <vehicle id="mf_1_0.60" type="type1" depart="196.00" departPos="random_free">
        <route edges="nt1_nt4 nt4_np8"/>
    </vehicle>
    <vehicle id="mf_4_0.50" type="type1" depart="196.00" departPos="random_free">
        <route edges="nt3_nt2 nt2_np3"/>
    </vehicle>
    <vehicle id="mf_4_0.51" type="type1" depart="197.00" departPos="random_free">
        <route edges="nt3_nt2 nt2_np3"/>
    </vehicle>
    <vehicle id="mf_1_0.61" type="type1" depart="199.00" departPos="random_free">
        <route edges="nt1_nt4 nt4_np8"/>
    </vehicle>
    <vehicle id="mf_4_0.52" type="type1" depart="199.00" departPos="random_free">
        <route edges="nt3_nt2 nt2_np3"/>
    </vehicle>
    <vehicle id="mf_0_0.58" type="type1" depart="200.00" departPos="random_free">
        <route edges="nt1_nt4 nt4_np7"/>
    </vehicle>
    <vehicle id="mf_1_0.62" type="type1" depart="202.00" departPos="random_free">
        <route edges="nt1_nt4 nt4_np8"/>
    </vehicle>
    <vehicle id="mf_0_0.59" type="type1" depart="203.00" departPos="random_free">
        <route edges="nt1_nt4 nt4_np7"/>
    </vehicle>
    <vehicle id="mf_4_0.53" type="type1" depart="203.00" departPos="random_free">
        <route edges="nt3_nt2 nt2_np3"/>
    </vehicle>
    <vehicle id="mf_0_0.60" type="type1" depart="206.00" departPos="random_free">
        <route edges="nt1_nt4 nt4_np7"/>
    </vehicle>
    <vehicle id="mf_4_0.54" type="type1" depart="206.00" departPos="random_free">
        <route edges="nt3_nt2 nt2_np3"/>
    </vehicle>
    <vehicle id="mf_1_0.63" type="type1" depart="207.00" departPos="random_free">
        <route edges="nt1_nt4 nt4_np8"/>
    </vehicle>
    <vehicle id="mf_4_0.55" type="type1" depart="208.00" departPos="random_free">
        <route edges="nt3_nt2 nt2_np3"/>
    </vehicle>
    <vehicle id="mf_4_0.56" type="type1" depart="210.00" departPos="random_free">
        <route edges="nt3_nt2 nt2_np3"/>
    </vehicle>
    <vehicle id="mf_0_0.61" type="type1" depart="211.00" departPos="random_free">
        <route edges="nt1_nt4 nt4_np7"/>
    </vehicle>
    <vehicle id="mf_1_0.64" type="type1" depart="212.00" departPos="random_free">
        <route edges="nt1_nt4 nt4_np8"/>
    </vehicle>
    <vehicle id="mf_4_0.57" type="type1" depart="212.00" departPos="random_free">
        <route edges="nt3_nt2 nt2_np3"/>
    </vehicle>
    <vehicle id="mf_0_0.62" type="type1" depart="213.00" departPos="random_free">
        <route edges="nt1_nt4 nt4_np7"/>
    </vehicle>
    <vehicle id="mf_4_0.58" type="type1" depart="213.00" departPos="random_free">
        <route edges="nt3_nt2 nt2_np3"/>
    </vehicle>
    <vehicle id="mf_0_0.63" type="type1" depart="214.00" departPos="random_free">
        <route edges="nt1_nt4 nt4_np7"/>
    </vehicle>
    <vehicle id="mf_1_0.65" type="type1" depart="214.00" departPos="random_free">
        <route edges="nt1_nt4 nt4_np8"/>
    </vehicle>
    <vehicle id="mf_4_0.59" type="type1" depart="214.00" departPos="random_free">
        <route edges="nt3_nt2 nt2_np3"/>
    </vehicle>
    <vehicle id="mf_1_0.66" type="type1" depart="215.00" departPos="random_free">
        <route edges="nt1_nt4 nt4_np8"/>
    </vehicle>
    <vehicle id="mf_1_0.67" type="type1" depart="220.00" departPos="random_free">
        <route edges="nt1_nt4 nt4_np8"/>
    </vehicle>
    <vehicle id="mf_1_0.68" type="type1" depart="221.00" departPos="random_free">
        <route edges="nt1_nt4 nt4_np8"/>
    </vehicle>
    <vehicle id="mf_4_0.60" type="type1" depart="221.00" departPos="random_free">
        <route edges="nt3_nt2 nt2_np3"/>
    </vehicle>
    <vehicle id="mf_1_0.69" type="type1" depart="222.00" departPos="random_free">
        <route edges="nt1_nt4 nt4_np8"/>
    </vehicle>
    <vehicle id="mf_0_0.64" type="type1" depart="225.00" departPos="random_free">
        <route edges="nt1_nt4 nt4_np7"/>
    </vehicle>
    <vehicle id="mf_4_0.61" type="type1" depart="225.00" departPos="random_free">
        <route edges="nt3_nt2 nt2_np3"/>
    </vehicle>
    <vehicle id="mf_4_0.62" type="type1" depart="227.00" departPos="random_free">
        <route edges="nt3_nt2 nt2_np3"/>
    </vehicle>
    <vehicle id="mf_0_0.65" type="type1" depart="228.00" departPos="random_free">
        <route edges="nt1_nt4 nt4_np7"/>
    </vehicle>
    <vehicle id="mf_1_0.70" type="type1" depart="229.00" departPos="random_free">
        <route edges="nt1_nt4 nt4_np8"/>
    </vehicle>
    <vehicle id="mf_4_0.63" type="type1" depart="233.00" departPos="random_free">
        <route edges="nt3_nt2 nt2_np3"/>
    </vehicle>
    <vehicle id="mf_0_0.66" type="type1" depart="234.00" departPos="random_free">
        <route edges="nt1_nt4 nt4_np7"/>
    </vehicle>
    <vehicle id="mf_4_0.64" type="type1" depart="234.00" departPos="random_free">
        <route edges="nt3_nt2 nt2_np3"/>
    </vehicle>
    <vehicle id="mf_4_0.65" type="type1" depart="235.00" departPos="random_free">
        <route edges="nt3_nt2 nt2_np3"/>
    </vehicle>
    <vehicle id="mf_1_0.71" type="type1" depart="236.00" departPos="random_free">
        <route edges="nt1_nt4 nt4_np8"/>
    </vehicle>
    <vehicle id="mf_0_0.67" type="type1" depart="237.00" departPos="random_free">
        <route edges="nt1_nt4 nt4_np7"/>
    </vehicle>
    <vehicle id="mf_1_0.72" type="type1" depart="237.00" departPos="random_free">
        <route edges="nt1_nt4 nt4_np8"/>
    </vehicle>
    <vehicle id="mf_4_0.66" type="type1" depart="240.00" departPos="random_free">
        <route edges="nt3_nt2 nt2_np3"/>
    </vehicle>
    <vehicle id="mf_0_0.68" type="type1" depart="244.00" departPos="random_free">
        <route edges="nt1_nt4 nt4_np7"/>
    </vehicle>
    <vehicle id="mf_0_0.69" type="type1" depart="245.00" departPos="random_free">
        <route edges="nt1_nt4 nt4_np7"/>
    </vehicle>
    <vehicle id="mf_1_0.73" type="type1" depart="248.00" departPos="random_free">
        <route edges="nt1_nt4 nt4_np8"/>
    </vehicle>
    <vehicle id="mf_1_0.74" type="type1" depart="250.00" departPos="random_free">
        <route edges="nt1_nt4 nt4_np8"/>
    </vehicle>