<routes>
    <vType accel="5" decel="10" id="type1" length="5.00" />
    <vehicle depart="0.00" departPos="random_free" id="mf_1_0.0" type="type1">
        <route edges="nt1_nt4 nt4_np8" />
    </vehicle>
    <vehicle depart="2.00" departPos="random_free" id="mf_4_0.0" type="type1">
        <route edges="nt3_nt2 nt2_np3" />
    </vehicle>
    <vehicle depart="3.00" departPos="random_free" id="mf_0_0.0" type="type1">
        <route edges="nt1_nt4 nt4_np7" />
    </vehicle>
    <vehicle depart="4.00" departPos="random_free" id="mf_4_0.1" type="type1">
        <route edges="nt3_nt2 nt2_np3" />
    </vehicle>
    <vehicle depart="8.00" departPos="random_free" id="mf_0_0.1" type="type1">
        <route edges="nt1_nt4 nt4_np7" />
    </vehicle>
    <vehicle depart="9.00" departPos="random_free" id="mf_1_0.1" type="type1">
        <route edges="nt1_nt4 nt4_np8" />
    </vehicle>
    <vehicle depart="10.00" departPos="random_free" id="mf_0_0.2" type="type1">
        <route edges="nt1_nt4 nt4_np7" />
    </vehicle>
    <vehicle depart="10.00" departPos="random_free" id="mf_1_0.2" type="type1">
        <route edges="nt1_nt4 nt4_np8" />
    </vehicle>
    <vehicle depart="10.00" departPos="random_free" id="mf_4_0.2" type="type1">
        <route edges="nt3_nt2 nt2_np3" />
    </vehicle>
    <vehicle depart="11.00" departPos="random_free" id="mf_0_0.3" type="type1">
        <route edges="nt1_nt4 nt4_np7" />
    </vehicle>
    <vehicle depart="12.00" departPos="random_free" id="mf_0_0.4" type="type1">
        <route edges="nt1_nt4 nt4_np7" />
    </vehicle>
    <vehicle depart="12.00" departPos="random_free" id="mf_4_0.3" type="type1">
        <route edges="nt3_nt2 nt2_np3" />
    </vehicle>
    <vehicle depart="15.00" departPos="random_free" id="mf_1_0.3" type="type1">
        <route edges="nt1_nt4 nt4_np8" />
    </vehicle>
    <vehicle depart="16.00" departPos="random_free" id="mf_1_0.4" type="type1">
        <route edges="nt1_nt4 nt4_np8" />
    </vehicle>
    <vehicle depart="16.00" departPos="random_free" id="mf_4_0.4" type="type1">
        <route edges="nt3_nt2 nt2_np3" />
    </vehicle>
    <vehicle depart="17.00" departPos="random_free" id="mf_0_0.5" type="type1">
        <route edges="nt1_nt4 nt4_np7" />
    </vehicle>
    <vehicle depart="18.00" departPos="random_free" id="mf_1_0.5" type="type1">
        <route edges="nt1_nt4 nt4_np8" />
    </vehicle>
    <vehicle depart="18.00" departPos="random_free" id="mf_4_0.5" type="type1">
        <route edges="nt3_nt2 nt2_np3" />
    </vehicle>
    <vehicle depart="20.00" departPos="random_free" id="mf_0_0.6" type="type1">
        <route edges="nt1_nt4 nt4_np7" />
    </vehicle>
    <vehicle depart="21.00" departPos="random_free" id="mf_0_0.7" type="type1">
        <route edges="nt1_nt4 nt4_np7" />
    </vehicle>
    <vehicle depart="22.00" departPos="random_free" id="mf_1_0.6" type="type1">
        <route edges="nt1_nt4 nt4_np8" />
    </vehicle>
    <vehicle depart="26.00" departPos="random_free" id="mf_0_0.8" type="type1">
        <route edges="nt1_nt4 nt4_np7" />
    </vehicle>
    <vehicle depart="26.00" departPos="random_free" id="mf_4_0.6" type="type1">
        <route edges="nt3_nt2 nt2_np3" />
    </vehicle>
    <vehicle depart="27.00" departPos="random_free" id="mf_0_0.9" type="type1">
        <route edges="nt1_nt4 nt4_np7" />
    </vehicle>
    <vehicle depart="27.00" departPos="random_free" id="mf_4_0.7" type="type1">
        <route edges="nt3_nt2 nt2_np3" />
    </vehicle>
    <vehicle depart="28.00" departPos="random_free" id="mf_0_0.10" type="type1">
        <route edges="nt1_nt4 nt4_np7" />
    </vehicle>
    <vehicle depart="29.00" departPos="random_free" id="mf_1_0.7" type="type1">
        <route edges="nt1_nt4 nt4_np8" />
    </vehicle>
    <vehicle depart="29.00" departPos="random_free" id="mf_4_0.8" type="type1">
        <route edges="nt3_nt2 nt2_np3" />
    </vehicle>
    <vehicle depart="30.00" departPos="random_free" id="mf_0_0.11" type="type1">
        <route edges="nt1_nt4 nt4_np7" />
    </vehicle>
    <vehicle depart="30.00" departPos="random_free" id="mf_4_0.9" type="type1">
        <route edges="nt3_nt2 nt2_np3" />
    </vehicle>
    <vehicle depart="33.00" departPos="random_free" id="mf_1_0.8" type="type1">
        <route edges="nt1_nt4 nt4_np8" />
    </vehicle>
    <vehicle depart="33.00" departPos="random_free" id="mf_4_0.10" type="type1">
        <route edges="nt3_nt2 nt2_np3" />
    </vehicle>
    <vehicle depart="34.00" departPos="random_free" id="mf_1_0.9" type="type1">
        <route edges="nt1_nt4 nt4_np8" />
    </vehicle>
    <vehicle depart="35.00" departPos="random_free" id="mf_0_0.12" type="type1">
        <route edges="nt1_nt4 nt4_np7" />
    </vehicle>
    <vehicle depart="37.00" departPos="random_free" id="mf_0_0.13" type="type1">
        <route edges="nt1_nt4 nt4_np7" />
    </vehicle>
    <vehicle depart="41.00" departPos="random_free" id="mf_1_0.10" type="type1">
        <route edges="nt1_nt4 nt4_np8" />
    </vehicle>
    <vehicle depart="42.00" departPos="random_free" id="mf_0_0.14" type="type1">
        <route edges="nt1_nt4 nt4_np7" />
    </vehicle>
    <vehicle depart="43.00" departPos="random_free" id="mf_0_0.15" type="type1">
        <route edges="nt1_nt4 nt4_np7" />
    </vehicle>
    <vehicle depart="44.00" departPos="random_free" id="mf_4_0.11" type="type1">
        <route edges="nt3_nt2 nt2_np3" />
    </vehicle>
    <vehicle depart="46.00" departPos="random_free" id="mf_1_0.11" type="type1">
        <route edges="nt1_nt4 nt4_np8" />
    </vehicle>
    <vehicle depart="47.00" departPos="random_free" id="mf_0_0.16" type="type1">
        <route edges="nt1_nt4 nt4_np7" />
    </vehicle>
    <vehicle depart="47.00" departPos="random_free" id="mf_1_0.12" type="type1">
        <route edges="nt1_nt4 nt4_np8" />
    </vehicle>
    <vehicle depart="48.00" departPos="random_free" id="mf_1_0.13" type="type1">
        <route edges="nt1_nt4 nt4_np8" />
    </vehicle>
    <vehicle depart="48.00" departPos="random_free" id="mf_4_0.12" type="type1">
        <route edges="nt3_nt2 nt2_np3" />
    </vehicle>
    <vehicle depart="49.00" departPos="random_free" id="mf_0_0.17" type="type1">
        <route edges="nt1_nt4 nt4_np7" />
    </vehicle>
    <vehicle depart="49.00" departPos="random_free" id="mf_4_0.13" type="type1">
        <route edges="nt3_nt2 nt2_np3" />
    </vehicle>
    <vehicle depart="50.00" departPos="random_free" id="mf_4_0.14" type="type1">
        <route edges="nt3_nt2 nt2_np3" />
    </vehicle>
    <vehicle depart="51.00" departPos="random_free" id="mf_1_0.14" type="type1">
        <route edges="nt1_nt4 nt4_np8" />
    </vehicle>
    <vehicle depart="52.00" departPos="random_free" id="mf_0_0.18" type="type1">
        <route edges="nt1_nt4 nt4_np7" />
    </vehicle>
    <vehicle depart="56.00" departPos="random_free" id="mf_1_0.15" type="type1">
        <route edges="nt1_nt4 nt4_np8" />
    </vehicle>
    <vehicle depart="57.00" departPos="random_free" id="mf_1_0.16" type="type1">
        <route edges="nt1_nt4 nt4_np8" />
    </vehicle>
    <vehicle depart="58.00" departPos="random_free" id="mf_0_0.19" type="type1">
        <route edges="nt1_nt4 nt4_np7" />
    </vehicle>
    <vehicle depart="62.00" departPos="random_free" id="mf_0_0.20" type="type1">
        <route edges="nt1_nt4 nt4_np7" />
    </vehicle>
    <vehicle depart="62.00" departPos="random_free" id="mf_1_0.17" type="type1">
        <route edges="nt1_nt4 nt4_np8" />
    </vehicle>
    <vehicle depart="64.00" departPos="random_free" id="mf_0_0.21" type="type1">
        <route edges="nt1_nt4 nt4_np7" />
    </vehicle>
    <vehicle depart="64.00" departPos="random_free" id="mf_1_0.18" type="type1">
        <route edges="nt1_nt4 nt4_np8" />
    </vehicle>
    <vehicle depart="65.00" departPos="random_free" id="mf_0_0.22" type="type1">
        <route edges="nt1_nt4 nt4_np7" />
    </vehicle>
    <vehicle depart="65.00" departPos="random_free" id="mf_1_0.19" type="type1">
        <route edges="nt1_nt4 nt4_np8" />
    </vehicle>
    <vehicle depart="67.00" departPos="random_free" id="mf_1_0.20" type="type1">
        <route edges="nt1_nt4 nt4_np8" />
    </vehicle>
    <vehicle depart="68.00" departPos="random_free" id="mf_4_0.15" type="type1">
        <route edges="nt3_nt2 nt2_np3" />
    </vehicle>
    <vehicle depart="69.00" departPos="random_free" id="mf_1_0.21" type="type1">
        <route edges="nt1_nt4 nt4_np8" />
    </vehicle>
    <vehicle depart="69.00" departPos="random_free" id="mf_4_0.16" type="type1">
        <route edges="nt3_nt2 nt2_np3" />
    </vehicle>
    <vehicle depart="71.00" departPos="random_free" id="mf_1_0.22" type="type1">
        <route edges="nt1_nt4 nt4_np8" />
    </vehicle>
    <vehicle depart="73.00" departPos="random_free" id="mf_0_0.23" type="type1">
        <route edges="nt1_nt4 nt4_np7" />
    </vehicle>
    <vehicle depart="74.00" departPos="random_free" id="mf_0_0.24" type="type1">
        <route edges="nt1_nt4 nt4_np7" />
    </vehicle>
    <vehicle depart="74.00" departPos="random_free" id="mf_4_0.17" type="type1">
        <route edges="nt3_nt2 nt2_np3" />
    </vehicle>
    <vehicle depart="75.00" departPos="random_free" id="mf_0_0.25" type="type1">
        <route edges="nt1_nt4 nt4_np7" />
    </vehicle>
    <vehicle depart="77.00" departPos="random_free" id="mf_0_0.26" type="type1">
        <route edges="nt1_nt4 nt4_np7" />
    </vehicle>
    <vehicle depart="77.00" departPos="random_free" id="mf_1_0.23" type="type1">
        <route edges="nt1_nt4 nt4_np8" />
    </vehicle>
    <vehicle depart="77.00" departPos="random_free" id="mf_4_0.18" type="type1">
        <route edges="nt3_nt2 nt2_np3" />
    </vehicle>
    <vehicle depart="78.00" departPos="random_free" id="mf_4_0.19" type="type1">
        <route edges="nt3_nt2 nt2_np3" />
    </vehicle>
    <vehicle depart="79.00" departPos="random_free" id="mf_1_0.24" type="type1">
        <route edges="nt1_nt4 nt4_np8" />
    </vehicle>
    <vehicle depart="80.00" departPos="random_free" id="mf_0_0.27" type="type1">
        <route edges="nt1_nt4 nt4_np7" />
    </vehicle>
    <vehicle depart="81.00" departPos="random_free" id="mf_1_0.25" type="type1">
        <route edges="nt1_nt4 nt4_np8" />
    </vehicle>
    <vehicle depart="82.00" departPos="random_free" id="mf_1_0.26" type="type1">
        <route edges="nt1_nt4 nt4_np8" />
    </vehicle>
    <vehicle depart="83.00" departPos="random_free" id="mf_4_0.20" type="type1">
        <route edges="nt3_nt2 nt2_np3" />
    </vehicle>
    <vehicle depart="84.00" departPos="random_free" id="mf_0_0.28" type="type1">
        <route edges="nt1_nt4 nt4_np7" />
    </vehicle>
    <vehicle depart="85.00" departPos="random_free" id="mf_0_0.29" type="type1">
        <route edges="nt1_nt4 nt4_np7" />
    </vehicle>
    <vehicle depart="87.00" departPos="random_free" id="mf_1_0.27" type="type1">
        <route edges="nt1_nt4 nt4_np8" />
    </vehicle>
    <vehicle depart="88.00" departPos="random_free" id="mf_0_0.30" type="type1">
        <route edges="nt1_nt4 nt4_np7" />
    </vehicle>
    <vehicle depart="88.00" departPos="random_free" id="mf_4_0.21" type="type1">
        <route edges="nt3_nt2 nt2_np3" />
    </vehicle>
    <vehicle depart="89.00" departPos="random_free" id="mf_0_0.31" type="type1">
        <route edges="nt1_nt4 nt4_np7" />
    </vehicle>
    <vehicle depart="90.00" departPos="random_free" id="mf_1_0.28" type="type1">
        <route edges="nt1_nt4 nt4_np8" />
    </vehicle>
    <vehicle depart="91.00" departPos="random_free" id="mf_1_0.29" type="type1">
        <route edges="nt1_nt4 nt4_np8" />
    </vehicle>
    <vehicle depart="95.00" departPos="random_free" id="mf_0_0.32" type="type1">
        <route edges="nt1_nt4 nt4_np7" />
    </vehicle>
    <vehicle depart="96.00" departPos="random_free" id="mf_1_0.30" type="type1">
        <route edges="nt1_nt4 nt4_np8" />
    </vehicle>
    <vehicle depart="97.00" departPos="random_free" id="mf_1_0.31" type="type1">
        <route edges="nt1_nt4 nt4_np8" />
    </vehicle>
    <vehicle depart="98.00" departPos="random_free" id="mf_0_0.33" type="type1">
        <route edges="nt1_nt4 nt4_np7" />
    </vehicle>
    <vehicle depart="98.00" departPos="random_free" id="mf_1_0.32" type="type1">
        <route edges="nt1_nt4 nt4_np8" />
    </vehicle>
    <vehicle depart="99.00" departPos="random_free" id="mf_0_0.34" type="type1">
        <route edges="nt1_nt4 nt4_np7" />
    </vehicle>
    <vehicle depart="99.00" departPos="random_free" id="mf_4_0.22" type="type1">
        <route edges="nt3_nt2 nt2_np3" />
    </vehicle>
    <vehicle depart="102.00" departPos="random_free" id="mf_1_0.33" type="type1">
        <route edges="nt1_nt4 nt4_np8" />
    </vehicle>
    <vehicle depart="103.00" departPos="random_free" id="mf_4_0.23" type="type1">
        <route edges="nt3_nt2 nt2_np3" />
    </vehicle>
    <vehicle depart="104.00" departPos="random_free" id="mf_1_0.34" type="type1">
        <route edges="nt1_nt4 nt4_np8" />
    </vehicle>
    <vehicle depart="105.00" departPos="random_free" id="mf_4_0.24" type="type1">
        <route edges="nt3_nt2 nt2_np3" />
    </vehicle>
    <vehicle depart="108.00" departPos="random_free" id="mf_4_0.25" type="type1">
        <route edges="nt3_nt2 nt2_np3" />
    </vehicle>
    <vehicle depart="110.00" departPos="random_free" id="mf_1_0.35" type="type1">
        <route edges="nt1_nt4 nt4_np8" />
    </vehicle>
    <vehicle depart="112.00" departPos="random_free" id="mf_0_0.35" type="type1">
        <route edges="nt1_nt4 nt4_np7" />
    </vehicle>
    <vehicle depart="113.00" departPos="random_free" id="mf_1_0.36" type="type1">
        <route edges="nt1_nt4 nt4_np8" />
    </vehicle>
    <vehicle depart="114.00" departPos="random_free" id="mf_0_0.36" type="type1">
        <route edges="nt1_nt4 nt4_np7" />
    </vehicle>
    <vehicle depart="116.00" departPos="random_free" id="mf_0_0.37" type="type1">
        <route edges="nt1_nt4 nt4_np7" />
    </vehicle>
    <vehicle depart="116.00" departPos="random_free" id="mf_1_0.37" type="type1">
        <route edges="nt1_nt4 nt4_np8" />
    </vehicle>
    <vehicle depart="117.00" departPos="random_free" id="mf_1_0.38" type="type1">
        <route edges="nt1_nt4 nt4_np8" />
    </vehicle>
    <vehicle depart="117.00" departPos="random_free" id="mf_4_0.26" type="type1">
        <route edges="nt3_nt2 nt2_np3" />
    </vehicle>
    <vehicle depart="118.00" departPos="random_free" id="mf_4_0.27" type="type1">
        <route edges="nt3_nt2 nt2_np3" />
    </vehicle>
    <vehicle depart="119.00" departPos="random_free" id="mf_4_0.28" type="type1">
        <route edges="nt3_nt2 nt2_np3" />
    </vehicle>
    <vehicle depart="122.00" departPos="random_free" id="mf_0_0.38" type="type1">
        <route edges="nt1_nt4 nt4_np7" />
    </vehicle>
    <vehicle depart="124.00" departPos="random_free" id="mf_4_0.29" type="type1">
        <route edges="nt3_nt2 nt2_np3" />
    </vehicle>
    <vehicle depart="125.00" departPos="random_free" id="mf_4_0.30" type="type1">
        <route edges="nt3_nt2 nt2_np3" />
    </vehicle>
    <vehicle depart="128.00" departPos="random_free" id="mf_1_0.39" type="type1">
        <route edges="nt1_nt4 nt4_np8" />
    </vehicle>
    <vehicle depart="131.00" departPos="random_free" id="mf_0_0.39" type="type1">
        <route edges="nt1_nt4 nt4_np7" />
    </vehicle>
    <vehicle depart="131.00" departPos="random_free" id="mf_1_0.40" type="type1">
        <route edges="nt1_nt4 nt4_np8" />
    </vehicle>
    <vehicle depart="132.00" departPos="random_free" id="mf_0_0.40" type="type1">
        <route edges="nt1_nt4 nt4_np7" />
    </vehicle>
    <vehicle depart="133.00" departPos="random_free" id="mf_4_0.31" type="type1">
        <route edges="nt3_nt2 nt2_np3" />
    </vehicle>
    <vehicle depart="134.00" departPos="random_free" id="mf_1_0.41" type="type1">
        <route edges="nt1_nt4 nt4_np8" />
    </vehicle>
    <vehicle depart="135.00" departPos="random_free" id="mf_0_0.41" type="type1">
        <route edges="nt1_nt4 nt4_np7" />
    </vehicle>
    <vehicle depart="136.00" departPos="random_free" id="mf_0_0.42" type="type1">
        <route edges="nt1_nt4 nt4_np7" />
    </vehicle>
    <vehicle depart="136.00" departPos="random_free" id="mf_1_0.42" type="type1">
        <route edges="nt1_nt4 nt4_np8" />
    </vehicle>
    <vehicle depart="137.00" departPos="random_free" id="mf_0_0.43" type="type1">
        <route edges="nt1_nt4 nt4_np7" />
    </vehicle>
    <vehicle depart="141.00" departPos="random_free" id="mf_1_0.43" type="type1">
        <route edges="nt1_nt4 nt4_np8" />
    </vehicle>
    <vehicle depart="142.00" departPos="random_free" id="mf_0_0.44" type="type1">
        <route edges="nt1_nt4 nt4_np7" />
    </vehicle>
    <vehicle depart="142.00" departPos="random_free" id="mf_1_0.44" type="type1">
        <route edges="nt1_nt4 nt4_np8" />
    </vehicle>
    <vehicle depart="143.00" departPos="random_free" id="mf_4_0.32" type="type1">
        <route edges="nt3_nt2 nt2_np3" />
    </vehicle>
    <vehicle depart="144.00" departPos="random_free" id="mf_0_0.45" type="type1">
        <route edges="nt1_nt4 nt4_np7" />
    </vehicle>
    <vehicle depart="145.00" departPos="random_free" id="mf_0_0.46" type="type1">
        <route edges="nt1_nt4 nt4_np7" />
    </vehicle>
    <vehicle depart="146.00" departPos="random_free" id="mf_1_0.45" type="type1">
        <route edges="nt1_nt4 nt4_np8" />
    </vehicle>
    <vehicle depart="147.00" departPos="random_free" id="mf_0_0.47" type="type1">
        <route edges="nt1_nt4 nt4_np7" />
    </vehicle>
    <vehicle depart="147.00" departPos="random_free" id="mf_4_0.33" type="type1">
        <route edges="nt3_nt2 nt2_np3" />
    </vehicle>
    <vehicle depart="149.00" departPos="random_free" id="mf_1_0.46" type="type1">
        <route edges="nt1_nt4 nt4_np8" />
    </vehicle>
    <vehicle depart="149.00" departPos="random_free" id="mf_4_0.34" type="type1">
        <route edges="nt3_nt2 nt2_np3" />
    </vehicle>
    <vehicle depart="150.00" departPos="random_free" id="mf_1_0.47" type="type1">
        <route edges="nt1_nt4 nt4_np8" />
    </vehicle>
    <vehicle depart="153.00" departPos="random_free" id="mf_4_0.35" type="type1">
        <route edges="nt3_nt2 nt2_np3" />
    </vehicle>
    <vehicle depart="154.00" departPos="random_free" id="mf_0_0.48" type="type1">
        <route edges="nt1_nt4 nt4_np7" />
    </vehicle>
    <vehicle depart="155.00" departPos="random_free" id="mf_4_0.36" type="type1">
        <route edges="nt3_nt2 nt2_np3" />
    </vehicle>
    <vehicle depart="158.00" departPos="random_free" id="mf_0_0.49" type="type1">
        <route edges="nt1_nt4 nt4_np7" />
    </vehicle>
    <vehicle depart="158.00" departPos="random_free" id="mf_1_0.48" type="type1">
        <route edges="nt1_nt4 nt4_np8" />
    </vehicle>
    <vehicle depart="159.00" departPos="random_free" id="mf_4_0.37" type="type1">
        <route edges="nt3_nt2 nt2_np3" />
    </vehicle>
    <vehicle depart="162.00" departPos="random_free" id="mf_1_0.49" type="type1">
        <route edges="nt1_nt4 nt4_np8" />
    </vehicle>
    <vehicle depart="163.00" departPos="random_free" id="mf_1_0.50" type="type1">
        <route edges="nt1_nt4 nt4_np8" />
    </vehicle>
    <vehicle depart="163.00" departPos="random_free" id="mf_4_0.38" type="type1">
        <route edges="nt3_nt2 nt2_np3" />
    </vehicle>
    <vehicle depart="165.00" departPos="random_free" id="mf_0_0.50" type="type1">
        <route edges="nt1_nt4 nt4_np7" />
    </vehicle>
    <vehicle depart="166.00" departPos="random_free" id="mf_0_0.51" type="type1">
        <route edges="nt1_nt4 nt4_np7" />
    </vehicle>
    <vehicle depart="166.00" departPos="random_free" id="mf_4_0.39" type="type1">
        <route edges="nt3_nt2 nt2_np3" />
    </vehicle>
    <vehicle depart="168.00" departPos="random_free" id="mf_1_0.51" type="type1">
        <route edges="nt1_nt4 nt4_np8" />
    </vehicle>
    <vehicle depart="169.00" departPos="random_free" id="mf_1_0.52" type="type1">
        <route edges="nt1_nt4 nt4_np8" />
    </vehicle>
    <vehicle depart="170.00" departPos="random_free" id="mf_4_0.40" type="type1">
        <route edges="nt3_nt2 nt2_np3" />
    </vehicle>
    <vehicle depart="171.00" departPos="random_free" id="mf_1_0.53" type="type1">
        <route edges="nt1_nt4 nt4_np8" />
    </vehicle>
    <vehicle depart="173.00" departPos="random_free" id="mf_4_0.41" type="type1">
        <route edges="nt3_nt2 nt2_np3" />
    </vehicle>
    <vehicle depart="175.00" departPos="random_free" id="mf_0_0.52" type="type1">
        <route edges="nt1_nt4 nt4_np7" />
    </vehicle>
    <vehicle depart="177.00" departPos="random_free" id="mf_1_0.54" type="type1">
        <route edges="nt1_nt4 nt4_np8" />
    </vehicle>
    <vehicle depart="178.00" departPos="random_free" id="mf_1_0.55" type="type1">
        <route edges="nt1_nt4 nt4_np8" />
    </vehicle>
    <vehicle depart="180.00" departPos="random_free" id="mf_0_0.53" type="type1">
        <route edges="nt1_nt4 nt4_np7" />
    </vehicle>
    <vehicle depart="180.00" departPos="random_free" id="mf_1_0.56" type="type1">
        <route edges="nt1_nt4 nt4_np8" />
    </vehicle>
    <vehicle depart="180.00" departPos="random_free" id="mf_4_0.42" type="type1">
        <route edges="nt3_nt2 nt2_np3" />
    </vehicle>
    <vehicle depart="181.00" departPos="random_free" id="mf_4_0.43" type="type1">
        <route edges="nt3_nt2 nt2_np3" />
    </vehicle>
    <vehicle depart="182.00" departPos="random_free" id="mf_4_0.44" type="type1">
        <route edges="nt3_nt2 nt2_np3" />
    </vehicle>
    <vehicle depart="183.00" departPos="random_free" id="mf_4_0.45" type="type1">
        <route edges="nt3_nt2 nt2_np3" />
    </vehicle>
    <vehicle depart="187.00" departPos="random_free" id="mf_0_0.54" type="type1">
        <route edges="nt1_nt4 nt4_np7" />
    </vehicle>
    <vehicle depart="187.00" departPos="random_free" id="mf_1_0.57" type="type1">
        <route edges="nt1_nt4 nt4_np8" />
    </vehicle>
    <vehicle depart="188.00" departPos="random_free" id="mf_4_0.46" type="type1">
        <route edges="nt3_nt2 nt2_np3" />
    </vehicle>
    <vehicle depart="189.00" departPos="random_free" id="mf_0_0.55" type="type1">
        <route edges="nt1_nt4 nt4_np7" />
    </vehicle>
    <vehicle depart="189.00" departPos="random_free" id="mf_1_0.58" type="type1">
        <route edges="nt1_nt4 nt4_np8" />
    </vehicle>
    <vehicle depart="191.00" departPos="random_free" id="mf_0_0.56" type="type1">
        <route edges="nt1_nt4 nt4_np7" />
    </vehicle>
    <vehicle depart="193.00" departPos="random_free" id="mf_4_0.47" type="type1">
        <route edges="nt3_nt2 nt2_np3" />
    </vehicle>
    <vehicle depart="194.00" departPos="random_free" id="mf_4_0.48" type="type1">
        <route edges="nt3_nt2 nt2_np3" />
    </vehicle>
    <vehicle depart="195.00" departPos="random_free" id="mf_0_0.57" type="type1">
        <route edges="nt1_nt4 nt4_np7" />
    </vehicle>
    <vehicle depart="196.00" departPos="random_free" id="mf_0_0.58" type="type1">
        <route edges="nt1_nt4 nt4_np7" />
    </vehicle>
    <vehicle depart="198.00" departPos="random_free" id="mf_0_0.59" type="type1">
        <route edges="nt1_nt4 nt4_np7" />
    </vehicle>
    <vehicle depart="198.00" departPos="random_free" id="mf_4_0.49" type="type1">
        <route edges="nt3_nt2 nt2_np3" />
    </vehicle>
    <vehicle depart="199.00" departPos="random_free" id="mf_0_0.60" type="type1">
        <route edges="nt1_nt4 nt4_np7" />
    </vehicle>
    <vehicle depart="200.00" departPos="random_free" id="mf_0_0.61" type="type1">
        <route edges="nt1_nt4 nt4_np7" />
    </vehicle>
    <vehicle depart="200.00" departPos="random_free" id="mf_1_0.59" type="type1">
        <route edges="nt1_nt4 nt4_np8" />
    </vehicle>
    <vehicle depart="201.00" departPos="random_free" id="mf_0_0.62" type="type1">
        <route edges="nt1_nt4 nt4_np7" />
    </vehicle>
    <vehicle depart="201.00" departPos="random_free" id="mf_4_0.50" type="type1">
        <route edges="nt3_nt2 nt2_np3" />
    </vehicle>
    <vehicle depart="203.00" departPos="random_free" id="mf_4_0.51" type="type1">
        <route edges="nt3_nt2 nt2_np3" />
    </vehicle>
    <vehicle depart="207.00" departPos="random_free" id="mf_0_0.63" type="type1">
        <route edges="nt1_nt4 nt4_np7" />
    </vehicle>
    <vehicle depart="209.00" departPos="random_free" id="mf_0_0.64" type="type1">
        <route edges="nt1_nt4 nt4_np7" />
    </vehicle>
    <vehicle depart="209.00" departPos="random_free" id="mf_4_0.52" type="type1">
        <route edges="nt3_nt2 nt2_np3" />
    </vehicle>
    <vehicle depart="210.00" departPos="random_free" id="mf_4_0.53" type="type1">
        <route edges="nt3_nt2 nt2_np3" />
    </vehicle>
    <vehicle depart="211.00" departPos="random_free" id="mf_1_0.60" type="type1">
        <route edges="nt1_nt4 nt4_np8" />
    </vehicle>
    <vehicle depart="211.00" departPos="random_free" id="mf_4_0.54" type="type1">
        <route edges="nt3_nt2 nt2_np3" />
    </vehicle>
    <vehicle depart="213.00" departPos="random_free" id="mf_1_0.61" type="type1">
        <route edges="nt1_nt4 nt4_np8" />
    </vehicle>
    <vehicle depart="213.00" departPos="random_free" id="mf_4_0.55" type="type1">
        <route edges="nt3_nt2 nt2_np3" />
    </vehicle>
    <vehicle depart="214.00" departPos="random_free" id="mf_1_0.62" type="type1">
        <route edges="nt1_nt4 nt4_np8" />
    </vehicle>
    <vehicle depart="215.00" departPos="random_free" id="mf_0_0.65" type="type1">
        <route edges="nt1_nt4 nt4_np7" />
    </vehicle>
    <vehicle depart="218.00" departPos="random_free" id="mf_0_0.66" type="type1">
        <route edges="nt1_nt4 nt4_np7" />
    </vehicle>
    <vehicle depart="218.00" departPos="random_free" id="mf_1_0.63" type="type1">
        <route edges="nt1_nt4 nt4_np8" />
    </vehicle>
    <vehicle depart="222.00" departPos="random_free" id="mf_0_0.67" type="type1">
        <route edges="nt1_nt4 nt4_np7" />
    </vehicle>
    <vehicle depart="223.00" departPos="random_free" id="mf_0_0.68" type="type1">
        <route edges="nt1_nt4 nt4_np7" />
    </vehicle>
    <vehicle depart="223.00" departPos="random_free" id="mf_4_0.56" type="type1">
        <route edges="nt3_nt2 nt2_np3" />
    </vehicle>
    <vehicle depart="224.00" departPos="random_free" id="mf_0_0.69" type="type1">
        <route edges="nt1_nt4 nt4_np7" />
    </vehicle>
    <vehicle depart="225.00" departPos="random_free" id="mf_0_0.70" type="type1">
        <route edges="nt1_nt4 nt4_np7" />
    </vehicle>
    <vehicle depart="227.00" departPos="random_free" id="mf_0_0.71" type="type1">
        <route edges="nt1_nt4 nt4_np7" />
    </vehicle>
    <vehicle depart="228.00" departPos="random_free" id="mf_4_0.57" type="type1">
        <route edges="nt3_nt2 nt2_np3" />
    </vehicle>
    <vehicle depart="229.00" departPos="random_free" id="mf_1_0.64" type="type1">
        <route edges="nt1_nt4 nt4_np8" />
    </vehicle>
    <vehicle depart="229.00" departPos="random_free" id="mf_4_0.58" type="type1">
        <route edges="nt3_nt2 nt2_np3" />
    </vehicle>
    <vehicle depart="230.00" departPos="random_free" id="mf_4_0.59" type="type1">
        <route edges="nt3_nt2 nt2_np3" />
    </vehicle>
    <vehicle depart="231.00" departPos="random_free" id="mf_1_0.65" type="type1">
        <route edges="nt1_nt4 nt4_np8" />
    </vehicle>
    <vehicle depart="233.00" departPos="random_free" id="mf_0_0.72" type="type1">
        <route edges="nt1_nt4 nt4_np7" />
    </vehicle>
    <vehicle depart="234.00" departPos="random_free" id="mf_0_0.73" type="type1">
        <route edges="nt1_nt4 nt4_np7" />
    </vehicle>
    <vehicle depart="236.00" departPos="random_free" id="mf_0_0.74" type="type1">
        <route edges="nt1_nt4 nt4_np7" />
    </vehicle>
    <vehicle depart="237.00" departPos="random_free" id="mf_1_0.66" type="type1">
        <route edges="nt1_nt4 nt4_np8" />
    </vehicle>
    <vehicle depart="238.00" departPos="random_free" id="mf_0_0.75" type="type1">
        <route edges="nt1_nt4 nt4_np7" />
    </vehicle>
    <vehicle depart="238.00" departPos="random_free" id="mf_4_0.60" type="type1">
        <route edges="nt3_nt2 nt2_np3" />
    </vehicle>
    <vehicle depart="239.00" departPos="random_free" id="mf_0_0.76" type="type1">
        <route edges="nt1_nt4 nt4_np7" />
    </vehicle>
    <vehicle depart="241.00" departPos="random_free" id="mf_0_0.77" type="type1">
        <route edges="nt1_nt4 nt4_np7" />
    </vehicle>
    <vehicle depart="243.00" departPos="random_free" id="mf_0_0.78" type="type1">
        <route edges="nt1_nt4 nt4_np7" />
    </vehicle>
    <vehicle depart="243.00" departPos="random_free" id="mf_1_0.67" type="type1">
        <route edges="nt1_nt4 nt4_np8" />
    </vehicle>
    <vehicle depart="244.00" departPos="random_free" id="mf_1_0.68" type="type1">
        <route edges="nt1_nt4 nt4_np8" />
    </vehicle>
    <vehicle depart="246.00" departPos="random_free" id="mf_0_0.79" type="type1">
        <route edges="nt1_nt4 nt4_np7" />
    </vehicle>
    <vehicle depart="248.00" departPos="random_free" id="mf_1_0.69" type="type1">
        <route edges="nt1_nt4 nt4_np8" />
    </vehicle>
    <vehicle depart="249.00" departPos="random_free" id="mf_4_0.61" type="type1">
        <route edges="nt3_nt2 nt2_np3" />
    </vehicle>
    <vehicle depart="251.00" departPos="random_free" id="mf_1_0.70" type="type1">
        <route edges="nt1_nt4 nt4_np8" />
    </vehicle>
    <vehicle depart="251.00" departPos="random_free" id="mf_4_0.62" type="type1">
        <route edges="nt3_nt2 nt2_np3" />
    </vehicle>
    <vehicle depart="253.00" departPos="random_free" id="mf_4_0.63" type="type1">
        <route edges="nt3_nt2 nt2_np3" />
    </vehicle>
    <vehicle depart="254.00" departPos="random_free" id="mf_4_0.64" type="type1">
        <route edges="nt3_nt2 nt2_np3" />
    </vehicle>